Version 4.1
SHEET 1 880 756
WIRE -48 32 -96 32
WIRE 192 32 -48 32
WIRE 304 32 240 32
WIRE 320 32 304 32
WIRE 416 32 384 32
WIRE 544 32 416 32
WIRE 416 64 416 32
WIRE -96 80 -96 32
WIRE 544 112 544 32
WIRE 192 144 192 112
WIRE 240 144 240 112
WIRE 416 144 416 128
WIRE 416 144 240 144
WIRE 416 176 416 144
WIRE -96 192 -96 160
WIRE 304 256 304 32
WIRE 336 256 304 256
WIRE 416 256 416 240
WIRE 416 256 400 256
WIRE 544 256 544 192
WIRE 544 256 416 256
WIRE 544 304 544 256
FLAG -96 192 0
FLAG 192 144 0
FLAG 544 304 0
FLAG -48 32 Vin
FLAG 336 0 Vout_1-3
SYMBOL voltage -96 64 R0
WINDOW 123 0 0 Left 0
WINDOW 39 24 124 Left 2
SYMATTR SpiceLine Rser=0.1
SYMATTR InstName V1
SYMATTR Value SINE(0 5 1meg)
SYMBOL ind2 176 16 R0
WINDOW 0 -20 31 Left 2
WINDOW 3 -59 68 Left 2
SYMATTR InstName L1
SYMATTR Value 1m
SYMBOL ind2 256 128 R180
WINDOW 0 -36 78 Left 2
WINDOW 3 -29 45 Left 2
SYMATTR InstName L2
SYMATTR Value 9m
SYMBOL res 528 96 R0
SYMATTR InstName R1
SYMATTR Value 1000
SYMBOL diode 320 48 R270
WINDOW 0 32 32 VTop 2
WINDOW 3 0 32 VBottom 2
SYMATTR InstName D1
SYMBOL cap 400 64 R0
SYMATTR InstName C1
SYMATTR Value 10µ
SYMBOL diode 400 272 M270
WINDOW 0 32 32 VTop 2
WINDOW 3 0 32 VBottom 2
SYMATTR InstName D2
SYMBOL cap 400 176 R0
SYMATTR InstName C2
SYMATTR Value 10µ
TEXT -256 160 Left 2 !.tran 3m
TEXT 184 -24 Left 2 !K L1 L2 1
TEXT -464 40 Left 4 ;Example 1:3
