Version 4.1
SHEET 1 880 680
WIRE 272 -384 -16 -384
WIRE 464 -384 368 -384
WIRE 592 -384 464 -384
WIRE 464 -368 464 -384
WIRE 352 -304 352 -336
WIRE 464 -304 352 -304
WIRE -16 -288 -16 -384
WIRE 352 -288 352 -304
WIRE 592 -240 592 -384
WIRE 352 -176 352 -208
WIRE -16 -16 -16 -208
WIRE 272 -16 -16 -16
WIRE 464 -16 368 -16
WIRE 592 -16 592 -160
WIRE 592 -16 464 -16
WIRE 464 0 464 -16
WIRE 352 64 352 32
WIRE 464 64 352 64
WIRE -16 80 -16 -16
WIRE 352 80 352 64
WIRE 592 128 592 -16
WIRE 352 192 352 160
WIRE -16 320 -16 160
WIRE 272 320 -16 320
WIRE 464 320 368 320
WIRE 592 320 592 208
WIRE 592 320 464 320
WIRE 464 336 464 320
WIRE 352 400 352 368
WIRE 464 400 352 400
WIRE 592 400 592 320
WIRE -16 416 -16 320
WIRE 352 416 352 400
WIRE -16 528 -16 496
WIRE 352 528 352 496
WIRE 592 544 592 480
FLAG 352 192 0
FLAG 592 544 0
FLAG 352 528 0
FLAG 352 -176 0
FLAG -16 528 0
SYMBOL voltage -16 64 R0
WINDOW 123 0 0 Left 0
WINDOW 39 0 0 Left 0
SYMATTR InstName V1
SYMATTR Value 4.0
SYMBOL pmos 272 32 R270
SYMATTR InstName M1
SYMATTR Value Si4431DY
SYMBOL res 336 64 R0
SYMATTR InstName R1
SYMATTR Value 10k
SYMBOL zener 480 64 R180
WINDOW 0 24 64 Left 2
WINDOW 3 -42 -21 Left 2
SYMATTR InstName D1
SYMATTR Value BZX84C12L
SYMBOL voltage -16 400 R0
WINDOW 123 0 0 Left 0
WINDOW 39 0 0 Left 0
SYMATTR InstName V2
SYMATTR Value -4.2
SYMBOL pmos 272 368 R270
SYMATTR InstName M2
SYMATTR Value Si4431DY
SYMBOL res 336 400 R0
SYMATTR InstName R2
SYMATTR Value 10k
SYMBOL zener 480 400 R180
WINDOW 0 24 64 Left 2
WINDOW 3 -57 -17 Left 2
SYMATTR InstName D2
SYMATTR Value BZX84C12L
SYMBOL res 576 384 R0
SYMATTR InstName R3
SYMATTR Value 100
SYMBOL res 576 112 R0
SYMATTR InstName R4
SYMATTR Value 100
SYMBOL voltage -16 -304 R0
WINDOW 123 0 0 Left 0
WINDOW 39 0 0 Left 0
SYMATTR InstName V3
SYMATTR Value 4.0
SYMBOL pmos 272 -336 R270
SYMATTR InstName M3
SYMATTR Value Si4431DY
SYMBOL res 336 -304 R0
SYMATTR InstName R5
SYMATTR Value 10k
SYMBOL zener 480 -304 R180
WINDOW 0 24 64 Left 2
WINDOW 3 -42 -21 Left 2
SYMATTR InstName D3
SYMATTR Value BZX84C12L
SYMBOL res 576 -256 R0
SYMATTR InstName R6
SYMATTR Value 100
TEXT -48 552 Left 2 !.tran 0 .1s 0s 1e-6
