Version 4.1
SHEET 1 880 680
WIRE -176 -272 -544 -272
WIRE 80 -272 -176 -272
WIRE -176 -256 -176 -272
WIRE 80 -256 80 -272
WIRE -544 -160 -544 -272
WIRE -464 -160 -544 -160
WIRE -448 -160 -464 -160
WIRE -176 -160 -176 -192
WIRE -176 -160 -224 -160
WIRE 80 -160 80 -176
WIRE 80 -160 -176 -160
WIRE -544 -144 -544 -160
WIRE -176 -144 -176 -160
WIRE -464 -64 -464 -160
WIRE -448 -64 -464 -64
WIRE -176 -64 -224 -64
WIRE -544 -48 -544 -64
WIRE -528 32 -544 32
WIRE -448 32 -464 32
WIRE -112 32 -224 32
WIRE -16 32 -32 32
WIRE -448 128 -464 128
FLAG -464 128 0
FLAG -544 -48 0
FLAG -544 32 0
FLAG -16 32 0
FLAG -544 -272 IN
SYMBOL voltage -544 -160 R0
WINDOW 3 -201 81 Left 2
WINDOW 123 0 0 Left 0
WINDOW 39 0 0 Left 0
SYMATTR Value 12
SYMATTR InstName V1
SYMBOL cap -464 16 R90
WINDOW 0 0 32 VBottom 2
WINDOW 3 32 32 VTop 2
SYMATTR InstName C1
SYMATTR Value 1µ
SYMBOL cap -192 -256 R0
WINDOW 39 23 64 Left 2
WINDOW 3 41 35 Left 2
SYMATTR SpiceLine Rser=100
SYMATTR Value 220p
SYMATTR InstName C3
SYMBOL res -192 -160 R0
SYMATTR InstName R1
SYMATTR Value 324k
SYMBOL res -128 48 R270
WINDOW 0 32 56 VTop 2
WINDOW 3 0 56 VBottom 2
SYMATTR InstName R2
SYMATTR Value 10K
SYMBOL LT8304 -336 -16 R0
SYMATTR InstName U1
SYMBOL res 64 -272 R0
SYMATTR InstName R3
SYMATTR Value 1k
TEXT -280 232 Left 2 !.tran 100m startup
