Version 4.1
SHEET 1 1044 680
WIRE -96 -64 -176 -64
WIRE -16 -64 -96 -64
WIRE 576 -64 -16 -64
WIRE 688 -64 624 -64
WIRE 816 -64 752 -64
WIRE 944 -64 816 -64
WIRE 576 -48 576 -64
WIRE 624 -48 624 -64
WIRE 816 -48 816 -64
WIRE 944 -48 944 -64
WIRE -176 -32 -176 -64
WIRE -96 0 -96 -64
WIRE -16 48 -16 -64
WIRE 64 48 -16 48
WIRE 80 48 64 48
WIRE 352 48 304 48
WIRE 576 48 576 32
WIRE 576 48 352 48
WIRE 624 48 624 32
WIRE 816 48 816 16
WIRE 816 48 624 48
WIRE 944 48 944 32
WIRE 944 48 816 48
WIRE -176 64 -176 48
WIRE 352 64 352 48
WIRE 944 64 944 48
WIRE 64 144 64 48
WIRE 80 144 64 144
WIRE 352 144 304 144
WIRE 0 240 -16 240
WIRE 80 240 64 240
WIRE 368 240 304 240
WIRE 448 240 368 240
WIRE 80 336 64 336
WIRE 368 352 368 320
WIRE 448 352 448 304
FLAG 64 336 0
FLAG -176 64 0
FLAG -16 240 0
FLAG 368 352 0
FLAG 944 64 0
FLAG -16 -64 IN
FLAG 944 -64 OUT
FLAG -96 64 0
FLAG 448 352 0
SYMBOL voltage -176 -48 R0
WINDOW 123 0 0 Left 0
WINDOW 39 0 0 Left 0
SYMATTR InstName V1
SYMATTR Value 12
SYMBOL cap 64 224 R90
WINDOW 0 0 32 VBottom 2
WINDOW 3 32 32 VTop 2
SYMATTR InstName C1
SYMATTR Value 1µ
SYMBOL ind2 560 -64 R0
WINDOW 0 -38 18 Left 2
WINDOW 3 -46 43 Left 2
SYMATTR InstName L1
SYMATTR Value 40µ
SYMATTR Type ind
SYMATTR SpiceLine Rser=100m
SYMBOL ind2 640 48 R180
WINDOW 0 -27 72 Left 2
WINDOW 3 -31 36 Left 2
SYMATTR InstName L2
SYMATTR Value 4m
SYMATTR Type ind
SYMATTR SpiceLine Rser=15m
SYMBOL schottky 688 -48 R270
WINDOW 0 32 32 VTop 2
WINDOW 3 -5 58 VBottom 2
SYMATTR InstName D1
SYMATTR Value UPSC600
SYMATTR Description Diode
SYMATTR Type diode
SYMBOL cap 800 -48 R0
WINDOW 3 38 37 Left 2
WINDOW 123 25 64 Left 2
SYMATTR Value 0.15µ
SYMATTR Value2 x3
SYMATTR InstName C2
SYMATTR SpiceLine V=630
SYMBOL res 336 48 R0
SYMATTR InstName R1
SYMATTR Value 392K
SYMBOL res 352 224 R0
SYMATTR InstName R2
SYMATTR Value 10K
SYMBOL res 928 -64 R0
SYMATTR InstName Rload
SYMATTR Value 1Meg
SYMBOL LT8304 192 192 R0
SYMATTR InstName U1
SYMBOL cap -112 0 R0
SYMATTR InstName C4
SYMATTR Value 10µ
SYMATTR SpiceLine V=25
SYMBOL cap 432 240 R0
SYMATTR InstName C3
SYMATTR Value 10p
SYMATTR SpiceLine V=25
TEXT 600 -64 Bottom 2 !K1 L2 L1 1
TEXT 640 304 Left 2 !.tran 20m startup
